21
Properties=species:S:1:pos:R:3:forces:R:3 energy=-405681.6 pbc="F F F"
C        2.13448882      -0.98436105      -0.19521789     -38.77897263      -7.44909763      32.24373245
C        0.76264381       0.95941395      -1.67992890     -46.76073074      28.08280182      -2.43084550
C        2.66034484      -0.40792605      -1.30730391      87.92727661     -25.08245277      -3.80014801
C        1.91031682       0.39396596      -2.14701986      -4.91080236       4.43874502      16.95259666
C       -3.03019023       1.49540496       0.71966213     -37.10688400     -30.31895828     -21.22313309
C        0.84942484      -0.55087107       0.28437510       6.28049231      17.90189171     -13.45901203
C        0.23844682       0.47350594      -0.40442190      -9.74913979      74.53069305     -43.88345337
O        0.89789581      -2.27643204       1.73006105     -22.22308350      -8.72302151      41.18384552
O       -2.38345218       0.41777894      -1.46285689      18.38887787      21.62928200      50.34434891
O       -0.47620118      -0.52908707       2.33925915      14.69058609     -43.00083160      18.81797600
C        0.39299181      -1.19023705       1.53798211      17.83567429      -2.53509736     -28.28778648
C       -2.12298512       0.95175993      -0.39770490       7.62890291       3.91547680       8.15791607
O       -0.80466616       1.28624594       0.11050910     -21.52779198     -49.73038864     -22.53693581
H       -0.49380317      -1.18679202       3.09597421     -10.14482784      24.56958961     -14.09449863
H        2.55473471      -1.80249703       0.39213109      14.97776604       7.38440657      -2.50140119
H        0.33068982       1.85571098      -2.34526396       6.29471064     -51.22077942      43.75522614
H        3.80379391      -0.49371904      -1.45620286     -41.88743591     -11.27256680      -9.16529655
H        2.23114085       0.55718595      -3.12414980      22.92061043      21.11463928     -43.92238617
H       -2.70893025       2.48465800       0.92692810       7.76605892      38.52204514      -0.32615697
H       -4.13048315       1.48216701       0.43126610      26.99172592      -1.11461222       5.66600227
H       -2.87414813       1.00320899       1.69948506       1.38698637     -11.64176846     -11.49058819
21
Properties=species:S:1:pos:R:3:forces:R:3 energy=-405691.06 pbc="F F F"
C        1.91282189      -1.34639776      -0.31699905     -18.45606804     -16.00057602      44.88381577
C        1.34071088       1.45485032      -0.78646505     -15.40618706     -38.01102066      -9.91596031
C        2.73054981      -0.59958571      -1.09802508       8.88264275      36.02728653     -30.66599655
C        2.36478090       0.73857927      -1.46352398     -11.64247322      -8.66729450      31.96606255
C       -3.01398516       1.97782826       0.42068696      -6.29207611     -30.82966614       9.29218769
C        0.76835686      -0.72969675       0.21595296     -27.96128464      25.65523148      -0.09791358
C        0.44296187       0.63175929      -0.00015904       1.38546085      15.48544121      12.45212746
O       -1.44289112      -1.48546469       0.89958394      14.89001274       8.05795288      -2.40370464
O       -1.53074908       1.29142129      -1.45861101     -31.81941986       8.54171276      44.33278656
O        0.36843586      -2.67051983       1.71684599     -26.00050735      71.07452393     -47.96724701
C       -0.23586112      -1.54319978       0.92117697       9.51538944     -70.67449951      42.56100845
C       -1.78978014       1.41991127      -0.26829505      54.73731613     -19.42749977     -22.62324905
O       -0.74327910       1.12690330       0.68765193       9.83571339       4.84913111     -50.04714584
H       -0.50164413      -2.95204377       2.01212192      -4.57466793     -21.29570198      13.92306328
H        2.11360097      -2.36088371       0.06478396       4.08015251       4.98707914     -12.03406811
H        1.16670883       2.51262236      -1.05812109      -5.48048925     -11.15540886       7.71614075
H        3.64886785      -1.01938772      -1.46973610      11.49009895      -5.93129444     -12.41195869
H        2.88814092       1.20231521      -2.27787805      16.32354927      14.45145130      -6.45068407
H       -3.30188823       2.83899927      -0.15106805      -3.78022027      26.66870499      -4.71561575
H       -3.93261313       1.32524431       0.40054396      22.96754265      -1.13035810      -3.37884736
H       -2.76379418       2.16919732       1.47685397      -2.69448543       7.32480431      -4.41480112
21
Properties=species:S:1:pos:R:3:forces:R:3 energy=-405699.8 pbc="F F F"
C        1.91537046      -1.23015440      -0.38161570       9.33560658      -4.90612793      20.79366875
C        0.93052953       0.96500355      -1.79778373      25.26734161       2.45760107     -32.39999390
C        2.70541143      -0.63704544      -1.43838573      -3.64575672     -46.86494064      46.04241180
C        2.17482162       0.36969057      -2.14823174       0.97949970      66.09641266     -52.29765320
C       -2.84186959       1.72941661       0.69858032     -30.61882591      19.74174118     -37.50083923
C        0.64553255      -0.75619543      -0.02516269       6.84599876       4.43540716     -19.49976158
C        0.17305653       0.36123356      -0.87275267     -44.73982239     -34.79098511      93.43296814
O        0.17032552      -2.10590434       2.10380220     -10.88086987      35.00639343     -67.20457458
O       -0.52755445       1.93249357       1.32618535      12.85983086       4.89433384      16.90475464
O       -1.49039149      -1.50851738       0.62700230      -3.10564065     -34.17561722      36.31840515
C       -0.19071548      -1.52614844       1.06623125       9.36388779      -0.75782311       8.11050510
C       -1.38200450       1.56175160       0.58642334      20.50165558     -25.91867447     -45.19211960
O       -1.10375547       0.87195057      -0.61638170      -7.86070395       9.20368767       5.54823160
H       -1.95758247      -2.16649032       1.23217833      14.53629875      26.68021965     -19.03757286
H        2.32019663      -2.04408550       0.26149932      -0.25743002       8.15691376     -12.25729561
H        0.53432751       1.86541653      -2.26183081       1.07951283       0.84744400      -7.70635939
H        3.71974659      -0.96901542      -1.64032269       2.90562606      -9.17146111      -1.04560268
H        2.76204443       0.82589656      -3.00110269     -12.32545853      -8.71661091      21.07467461
H       -3.05424452       2.44424868       1.45876932      -4.57960939      20.53990555      24.27549553
H       -3.32110047       2.11898065      -0.26301569      17.55566406     -13.63297749      20.48857498
H       -3.33969259       0.80739355       0.95942229      -3.21680117     -19.12484360       1.15207112
21
Properties=species:S:1:pos:R:3:forces:R:3 energy=-405685.97 pbc="F F F"
C        2.04997087      -1.05126524      -0.37990412     -24.53557777     -34.62011719      29.85196304
C        0.84862483       1.10590076      -1.63686419       1.71759093       7.72996807     -33.31754303
C        2.46391273      -0.73983127      -1.65917516      35.27698517      31.17003441     -59.25148010
C        1.88021076       0.44146070      -2.34642816       5.38101768     -51.61735153      53.07051468
C       -3.04794216       1.26564276       0.81475484     -15.99270916     -49.89919662      49.53515625
C        0.97189581      -0.36912930       0.23092787      -3.29339004       0.83163530      -4.57420301
C        0.29745081       0.67783672      -0.45206612      19.93755150     -33.38945770      67.06722260
O        0.82180583      -2.07788229       2.00717783      28.85568619      40.50827026     -33.09326172
O       -2.21735120       0.21032470      -1.15677118       8.19244766      18.03208351      11.18179035
O       -0.63219416      -0.46743429       2.04598880      -5.29084396       8.61450958      10.18441486
C        0.50169283      -0.98472726       1.50435591     -46.88122940     -69.40383148      37.29217911
C       -2.00852513       0.89730769      -0.17790812       7.42542410     -21.02172089      -6.05887413
O       -0.77251017       1.26871669       0.26467386      24.40358925      11.93160629     -40.50266647
H       -0.87361419      -1.14549732       2.72893476       9.29686642      15.76858521     -14.76243114
H        2.26602387      -2.00592136       0.20027888      14.93996906      27.13499641     -21.38845062
H        0.38719782       1.99285674      -2.00451922      -9.34721947      20.99301910     -22.60872269
H        3.36879277      -1.30805624      -2.13351822     -42.52261353      21.38675117      15.76690769
H        2.15770292       0.70404571      -3.37680602       1.87043452       4.03232002       8.32560444
H       -3.87199926       1.70360267       0.28243086     -28.84062767      -8.63153744     -11.07073021
H       -3.26152420       0.18318671       1.36520290      -0.89457995      64.82515717     -32.84639359
H       -2.84937429       1.99582875       1.61499786      20.30123138      -4.37573147      -2.80100298
21
Properties=species:S:1:pos:R:3:forces:R:3 energy=-405685.2 pbc="F F F"
C        1.86821389      -1.23831606      -0.55609655     -28.39726257     -19.71770477      26.47511292
C        1.74850488       1.40904391      -0.19489957     -64.24468231      39.95833969      22.57963753
C        2.94664788      -0.41460505      -0.88844061      26.64533424     -41.53678894     -33.15532303
C        2.94217491       0.99768394      -0.66277057      25.93002701     -51.21854401     -12.92131329
C       -2.90093303       2.14715290       0.60824943      26.96450806     -91.10572815      18.35029602
C        0.63889992      -0.70392603      -0.01926658      -4.82155466     -47.61752319       3.48816729
C        0.52231896       0.65095294      -0.01272058      24.20666313      51.81098557       4.29825306
O       -1.37067604      -1.12329900       1.27868247      62.38125610     -52.54347610     -32.95059204
O       -2.00274897       0.44592196      -0.98867857     -12.72375965      41.18027496      11.07744503
O       -0.25580308      -2.94900298       0.25022742       1.63705313      51.59816360      18.47814369
C       -0.42521608      -1.60497010       0.61438644     -40.84584427      26.84294891      -8.49120712
C       -1.80409706       1.32506895      -0.16153558     -14.32068443     -56.94197083       0.01872561
O       -0.56085408       1.44878399       0.37617841      20.01130676      19.37476730      20.52902794
H       -0.87588108      -3.42823505       0.80177140     -12.98872089      -8.84860897       6.35713291
H        1.81231594      -2.37414598      -0.51870656      21.22403717      31.50708199     -15.34746170
H        1.66057599       2.41176486       0.17713042      -6.16926098      25.18273163      -2.98585200
H        3.76828599      -0.95699006      -1.43974054      -7.28408480      17.42386246      18.10652542
H        3.85081387       1.63523197      -0.79579461     -19.62222672     -10.05835819       3.27739882
H       -2.55335808       3.00523996       1.12890244      11.74405479      24.06605721      13.46995926
H       -3.67112899       2.31366396      -0.06822558     -39.40801620      22.35697174     -41.53615952
H       -3.41430616       1.37574697       1.32909143      30.08185768      28.28651619     -19.11791420
21
Properties=species:S:1:pos:R:3:forces:R:3 energy=-405685.7 pbc="F F F"
C        2.12360430      -1.08220959      -0.29276380     -43.42668915      47.79443359     -41.85934067
C        0.74887419       1.05811942      -1.59345984     -22.62838173      51.15945053     -20.00234985
C        2.52806926      -0.59949058      -1.58242977     -59.54154205      11.07310677      53.51208115
C        1.80041015       0.42231241      -2.22812176      17.35054016      32.38652039      -7.29520416
C       -3.13007689       1.70581341       0.47243020      35.62023163       3.81807542       7.49415302
C        0.92309821      -0.45261160       0.27343422      47.92607117     -82.72381592      59.22424316
C        0.30283520       0.58707041      -0.36611578     -38.00539780      13.47657108      -7.28299332
O        1.07924223      -2.26497865       2.04750228     -38.32645798      96.37673950     -40.88623047
O       -2.29570770       0.45096642      -1.39274979      11.79116154      11.85937214      35.15816879
O       -0.62113482      -0.76988858       2.31339121      38.34626389     -20.62024689     -24.38825607
C        0.51345623      -1.19322860       1.63499916      13.22986412     -57.39731598       1.58145952
C       -2.08626580       1.02943945      -0.33451578      13.29256725     -32.99947357     -67.44602966
O       -0.79981583       1.21990037       0.17541322     -23.25981331       7.13528490      28.75855255
H       -0.68150681      -1.57717955       2.87085819     -10.81725883      14.45701122       7.29727411
H        2.54029918      -1.95011556       0.20005222       8.51670265      -1.56009173       5.54461670
H        0.26715618       2.06434536      -1.97953475      20.32977104     -52.82516098      11.42045879
H        3.37509322      -0.90279156      -2.07079387      59.10259247     -33.46242142     -27.79016495
H        2.15903711       0.95150143      -3.14415574       0.56205672     -21.25292778       7.87649155
H       -3.87579584       2.15662932      -0.14076878      -8.14355946      27.04970932     -21.15493011
H       -3.71025872       1.03502536       1.03703117     -14.91906834     -40.52351761      27.47519302
H       -2.55740190       2.30513144       1.16107321      -6.99965477      26.77869987      12.76280880
21
Properties=species:S:1:pos:R:3:forces:R:3 energy=-405678.16 pbc="F F F"
C        1.94373798      -1.12190604      -0.54240167      42.98181534      84.31953430    -109.71614075
C        0.99291605       1.35484993      -1.57269061     -18.86367607     -40.32600021      34.58377075
C        2.62563014      -0.53110909      -1.72131765     -44.74450684      20.95805359      65.00851440
C        2.12606502       0.72246391      -2.14591360     -10.01417351      -6.00022125     -15.34782505
C       -3.07824588       1.81977296       0.05110235      33.16262054      -0.78620201      38.17813873
C        0.89039701      -0.51656407       0.03505735     -51.30092239      46.92335892      13.31355858
C        0.36034304       0.70687193      -0.45276865      15.88984489       7.66392946     -22.61839485
O        0.17583703      -2.29128599       1.48834133       7.04902411      -2.97029352     -15.67286205
O       -2.29219389      -0.55632710       0.26895136      11.28761959      18.85886765     -27.52234650
O       -0.07219698      -0.21676609       2.17146635     -18.82949448      -4.44378233      59.11732101
C        0.27147204      -1.10362303       1.24360335      -0.36921304     -44.20203781      26.23583031
C       -2.06452298       0.59975493       0.01414335      -8.09440517      31.26432037      43.11661148
O       -0.77819699       1.23148990       0.14688335      -8.37687969      -0.61892849     -35.20482254
H       -0.36985096      -0.78607410       2.98284745      16.34708595      29.72661591     -50.37714386
H        2.12896013      -2.06208515      -0.28594366      34.33769989    -104.36445618      38.11316681
H        0.55817705       2.23286891      -2.04555368      -1.80873680       5.56375122       3.23894048
H        3.59125900      -0.87859911      -2.05085754       4.84661579     -14.74873638     -12.43227863
H        2.43179107       1.17466688      -3.10297060      14.58174610      -1.30937636       7.65687704
H       -3.65343690       1.68065286       1.04530036       2.03566408       0.82192385     -42.37948608
H       -2.39145207       2.69339395       0.27184734     -18.20939636     -13.54610538     -10.11854267
H       -3.64546299       2.04819393      -0.87819463      -1.90833127     -12.78421974      12.82711411
21
Properties=species:S:1:pos:R:3:forces:R:3 energy=-405695.75 pbc="F F F"
C        1.78169668      -1.29213583      -0.61799306      19.52176857      39.31924820     -18.18120956
C        0.73353362       1.04915714      -1.64525902       5.47364473      44.39939117      -6.93689775
C        2.27256870      -0.75770682      -1.85033500     -14.28929329       7.67359209      18.09691238
C        1.76496065       0.47451916      -2.36644411     -13.62818432     -71.03257751      54.84786606
C       -3.07672548       1.53583813       0.54462796      10.94022846       9.53802013     -33.87116623
C        0.82908666      -0.59266984       0.15878396      12.09861565     -19.94673920     -23.80071449
C        0.31400165       0.55988920      -0.43717703     -30.56208229      21.81421661      50.02755356
O        1.17572558      -1.65040684       2.30576301      32.28236771     -33.99020767      13.37496853
O       -2.05920744      -0.09448282      -0.76926506      -7.60486031     -53.02559662     -38.06875992
O       -0.65391135      -0.44790182       1.94328094     -10.61914730      -1.88769090     -16.70646858
C        0.50311261      -1.03588688       1.54442000     -31.10967064      44.82721710      -1.97297657
C       -1.93371832       0.81796920      -0.04059004      47.32764435      40.18925095      30.33269119
O       -0.66524035       1.37225723       0.24812096      -5.89788723     -27.10861397     -30.10796356
H       -0.74349636      -0.54720682       2.88611984       2.83677793     -10.26446438      20.70599556
H        2.33718467      -2.10840583      -0.20708203       1.72011304     -22.35933685      11.43164158
H        0.37151465       2.06784415      -1.84690702      -5.29547882      -7.56564236     -12.49622250
H        3.11624765      -1.26714683      -2.31596398      -0.91097087      -2.98440242      -7.26765871
H        1.97366369       0.75522918      -3.33470106      24.03544426      28.23819160     -54.84750366
H       -3.71779728       0.80257720       0.95669097     -25.74610329     -18.26240540      20.52662086
H       -2.82697725       2.36229610       1.15123093       8.31326675      23.92073250      30.04304886
H       -3.51807046       1.92031920      -0.37310103     -18.88619804       8.50781345      -5.12975359
21
Properties=species:S:1:pos:R:3:forces:R:3 energy=-405687.25 pbc="F F F"
C        1.92179656      -1.17710006      -0.29663643       5.79921103     -86.50757599       6.28585291
C        1.49775147       1.45259392      -0.50778246     -22.28815269      25.26918793      18.25559235
C        2.92208552      -0.39918607      -0.82230842      32.56604767      -6.07214022     -24.75087547
C        2.74979258       0.97421890      -0.89701742     -44.37240601      10.06422520      10.21067810
C       -2.62442541       2.21092486       0.69489455      75.95736694      23.18088531     -22.96297073
C        0.67656350      -0.72098809       0.09661056     -32.55646515     -26.19621086      36.58800888
C        0.43978852       0.59947592      -0.06316844      39.42395401      48.83442688       0.00528588
O       -1.49777842      -1.29623306       1.23754060      41.04804230     -16.27868271       5.06958818
O       -1.99120843       0.75432289      -1.28269541       0.55105722      10.06958675      15.47253799
O       -0.01886547      -2.87311816       0.39957857     -39.64093018     -32.68179703      48.54001999
C       -0.40542248      -1.61450112       0.79523057       0.48381430       4.74885178     -69.44342804
C       -1.79818046       1.28386486      -0.21682245      -6.40846968      15.48810005       0.45389158
O       -0.64319146       1.15391195       0.52359557     -10.93662930      20.99724007      -5.61165667
H       -0.63799149      -3.55641007       0.81996256      20.75528145      31.99028206     -17.91515350
H        2.04646349      -2.29158306      -0.16489343       7.64908075      27.16237640      -7.90098667
H        1.35864055       2.54615688      -0.32623744      -3.02904487     -14.54943466     -12.61598969
H        3.82721758      -0.84451008      -1.26043844      -1.14848280      -3.37453389      10.88890171
H        3.45619345       1.71530986      -1.19778049      24.28938675       6.42784929      -8.99297333
H       -2.43368459       1.67048788       1.61763060      -8.16465855      14.67123222      23.61548996
H       -2.17261744       3.30615997       0.62967557     -14.36612034     -52.07064056      11.27942181
H       -3.61990142       2.27142000       0.43788856     -65.61188507      -1.17322516     -16.47123146
21
Properties=species:S:1:pos:R:3:forces:R:3 energy=-405692.47 pbc="F F F"
C        2.01414847      -1.21391702      -0.26192668     -41.49645615      15.98413658       5.46870184
C        1.39188433       1.29709399      -1.02379966     -72.85153961      22.75019646      18.67258835
C        2.87654042      -0.54993701      -1.13818264      -3.59072948     -26.26876068      27.04098701
C        2.51489544       0.70905596      -1.51073265      52.19760513      41.87514114     -36.57835388
C       -2.99773359       1.88914204       0.49786633     -69.91980743       0.63275003      10.50149632
C        0.78313738      -0.61994904       0.24356532      17.37524223     -32.89960861     -18.97121239
C        0.42033038       0.69237500      -0.21191968       6.68027020     -34.02156830      40.77134705
O       -1.08078969      -0.89475602       1.68292236      47.64494324     -58.62401581     -24.79617882
O       -2.07697368       0.65738899      -1.29641867       8.23355961     -20.32670403      -8.30521011
O        0.16552436      -2.82090306       1.22705436     -39.77168655       7.36166906      14.69695282
C       -0.12205064      -1.48084104       1.12289035     -51.78112793      52.59093857      23.91586304
C       -1.90012562       1.19119000      -0.23757169     -16.24769974      29.08651924     -11.78274727
O       -0.71727365       1.41274095       0.35279432      68.57261658     -21.22627640     -17.56487465
H       -0.62297666      -3.26975894       1.70818532      40.39980698      31.83678055     -21.98480415
H        2.17320633      -2.24471211      -0.02048468       7.45438862     -17.75866318      11.30458355
H        1.08125341       2.27557898      -1.26687372       3.10710621      39.37216949     -17.85135841
H        3.84621930      -0.93216902      -1.41720271       6.36041164     -13.32815647      -6.58257437
H        3.23106933       1.30777192      -2.14655662     -20.25757408     -10.39139175      11.66508198
H       -3.61588073       2.54355788      -0.19724669      19.13967705     -17.28929329       3.92280769
H       -3.77146864       1.06485903       0.79639333      30.80138588      30.41724014      -1.01364470
H       -2.75699258       2.57840896       1.33930731       7.94960594     -19.77310562      -2.52945113
21
Properties=species:S:1:pos:R:3:forces:R:3 energy=-405677.4 pbc="F F F"
C        1.94713175      -1.04557812      -0.33334494     -24.27381706      -5.54139662      -0.57619840
C        0.95079869       1.14532995      -1.60147500      -6.94847298      40.95486069     -45.67250824
C        2.67148972      -0.49288410      -1.37732995      25.85712242      17.90042686      -8.66256905
C        2.17264366       0.65219593      -2.09106588     -26.49760246     -57.90611649      38.79243088
C       -3.25805640       1.31241786       0.62585306      14.43789673       9.10256577     -42.18322754
C        0.69967771      -0.55880207       0.09367305      27.23888969     -11.17861652      21.51581001
C        0.25133669       0.60095793      -0.56555593     -31.73569870      11.20176315      89.08512115
O        0.47788671      -2.39259720       1.79524505       9.83950996      25.91919327     -22.61502266
O       -2.12491441       0.10116892      -1.19359791      -3.06112981      49.04943848      63.73517609
O       -0.22437230      -0.25778410       2.33786798       8.85184860     -38.41918564     -12.02399635
C        0.35395870      -1.23819613       1.44498110     -62.18785095      38.46868896      42.97797012
C       -2.02501535       0.89984590      -0.23236495     -12.12831211     -26.55530930     -53.62700272
O       -0.79235429       1.38282096       0.13533005      -0.62040091     -28.79777908     -34.93856812
H       -0.53293228      -0.68849111       3.19662094      19.64843559       4.14803791     -39.15497208
H        2.21842575      -1.94720614       0.19237505      21.46195793      -9.00036144       2.19923615
H        0.50264770       2.03476000      -2.09839201       4.26271772     -10.68537235       6.34677458
H        3.70630980      -0.88021308      -1.42813694      -7.95106506       1.96089542     -21.15295410
H        2.41413474       0.87210393      -3.10887003      26.06033325      17.82209015     -13.18954659
H       -3.29261923       2.16710591       1.29587901      18.64793968      12.51503563       0.12347997
H       -4.17093229       1.31726992       0.01321805       5.72304249       4.50218105     -10.97152328
H       -3.38621235       0.45152092       1.20073700      -6.62534189     -45.46104050      39.99208832
21
Properties=species:S:1:pos:R:3:forces:R:3 energy=-405681.5 pbc="F F F"
C        1.80503845      -1.27140307      -0.45853445      11.20180893      32.43930054     -16.34854126
C        1.01749444       1.17740488      -1.52622247      44.35571289     -23.01054192     -60.55340576
C        2.60127044      -0.73516810      -1.48344040     -50.92522812      41.56185532      -5.76318932
C        2.18578053       0.51402086      -2.09025955     -45.94042969      -3.28772163      -2.64772058
C       -2.98073959       1.22660089       0.97092253     -32.96138382      23.68100929       4.82487965
C        0.75251943      -0.49221811       0.12372255      33.40168762     -55.01360321      13.18822289
C        0.28436545       0.61750591      -0.50155342      25.51214790      35.94868851     -10.30966568
O        0.20814446      -2.21511602       1.56298351       0.15007840     -45.79577255      33.85282135
O       -2.20856261       0.08195889      -1.02430141     -44.95685959     -79.05273438     -89.79040527
O       -0.10898655      -0.04436011       2.33315849      19.46037483     -21.40797424     -27.55436325
C        0.29726344      -1.04573417       1.40986156     -44.23389053      55.12734604      14.62971973
C       -2.03674865       0.85211986      -0.18778744      43.39613724      50.28890991      98.25591278
O       -0.73007655       1.37002587      -0.05400245     -51.85419464      36.78951263      44.39521408
H       -0.23278055      -0.41475111       3.22144055      -0.47517246     -11.98067951      -6.64022589
H        2.04372740      -2.29158211      -0.18495144      -2.67665386      -3.79932714      20.68434906
H        0.56087142       2.02811885      -2.03966546       5.52214146       3.39724302      -0.48102272
H        3.39249134      -1.33423007      -1.84742844      25.78656578     -14.31311417     -18.88518333
H        2.40607238       0.81807691      -3.17219639      15.12827206      -4.81314659      39.26275635
H       -2.50966454       1.17137384       1.97928858       7.02450466       3.32405829     -16.40045738
H       -3.47297454       2.26264787       0.86842453      23.31092262     -24.83730125      -1.47843051
H       -3.87223148       0.53682888       1.02467561      19.77345657       4.75399065     -12.24126244
21
Properties=species:S:1:pos:R:3:forces:R:3 energy=-405695.7 pbc="F F F"
C        1.95600021      -1.23032939      -0.43379673      43.38782120      22.76709175     -33.83346176
C        0.74947226       1.12539160      -1.34952271       7.50398207     -36.42944336      12.61528206
C        2.41231632      -0.64966142      -1.66756868     -45.89299393       8.44150925      59.24861145
C        1.83478320       0.54506457      -2.05717468      11.82459641       6.04397821     -29.34390259
C       -3.16633773       1.90837455       0.30881828       0.19199218      -9.74355698      18.99265099
C        0.93372422      -0.67768741       0.28192228     -60.51139832      52.51127625      14.39711380
C        0.23707923       0.54421854      -0.17445174      11.28893948     -26.84179688     -40.72653961
O        1.46487820      -1.80802143       2.28830338     -15.43166065      -7.91642332      -1.00932515
O       -2.20776486       0.51816058      -1.48525071      -9.23855591       3.09090090      25.38630676
O       -0.69975376      -1.09515941       1.96665728      23.75087547       3.29843760     -31.67765617
C        0.61920822      -1.28593040       1.59488821     -11.90809441       7.62585735      27.60075569
C       -2.13188171       1.03501952      -0.39388072      35.66609955      21.65821266     -10.06539059
O       -0.94972378       1.11702454       0.33658227      18.85672379     -17.44676590      12.38434410
H       -0.89127576      -1.66008747       2.70667529       3.60191417     -11.85183239      22.65659714
H        2.63122535      -1.93010342       0.04211226      -7.10233498     -19.91825867       4.34497976
H        0.17699023       1.86460257      -1.84426773     -12.10902596      32.77422333      -8.06464672
H        3.18413925      -1.13205647      -2.17709780      36.42004776     -15.82440090     -27.01889992
H        2.25280833       0.99170458      -3.00053263     -16.76376534      -0.04408843      17.37933731
H       -3.34699368       2.80225062      -0.28967375       5.42543745       9.21392918      -6.18343258
H       -4.07088995       1.32164860       0.18782426     -19.47389221      -3.79269695       9.84903908
H       -2.97890282       2.21500254       1.40254223       0.51329440     -17.61615372     -36.93176270
21
Properties=species:S:1:pos:R:3:forces:R:3 energy=-405684.56 pbc="F F F"
C        2.05847740      -1.03314543      -0.30902818      20.43357849      11.66304493     -10.56764603
C        0.99104542       1.19491363      -1.62832415     -42.77366638     -22.53513527      54.18136978
C        2.64518237      -0.47476539      -1.45072925      67.79624176     -64.27650452      -7.30961561
C        2.10696650       0.58953762      -2.07999921       9.55620098      39.10716248     -51.93297958
C       -3.01380658       1.88441360       0.46936181     -28.97813225      -3.66670084      -9.82996368
C        0.85838240      -0.47184038       0.16428581      15.59008312       1.53016961     -24.63978195
C        0.29894942       0.64383060      -0.47879320      33.04022598      10.42708969     -43.10836411
O        0.64136243      -2.30359149       1.65489781      -4.92162704      -2.10623884       2.07257009
O       -2.31365156      -0.45262739      -0.38548321     -16.11990547      94.38335419      27.62839127
O       -0.54941261      -0.37525138       2.03867888      26.78251839     -19.79314995     -31.38517189
C        0.33821940      -1.19257438       1.30045784     -42.34420395      30.19895172      49.78590775
C       -2.20213556       0.72713161      -0.04832619     101.10922241     -52.06025696     -21.56249619
O       -0.76281357       1.34997559      -0.10223619     -88.62950897       0.77632475      19.15485764
H       -0.91362458      -1.00483334       2.64943290     -12.02063465     -13.02456379      23.77954865
H        2.53656030      -1.77297938       0.34909481      -2.57437229      -4.46023130     -15.06256866
H        0.63615739       2.03386950      -2.15942430     -22.99361992      29.73176193      -8.80907345
H        3.55560136      -0.81853539      -2.05187011     -18.21783066      -8.82434750      38.75563812
H        2.58392644       1.00254560      -2.98933411      -0.97354454      -5.09111023       7.52705908
H       -2.79337263       2.10905051       1.55330181     -12.70173073     -18.57737160     -16.35733604
H       -2.76531363       2.84048367      -0.02625819       9.18804359      -9.94997120      -7.58924150
H       -4.06862068       1.64798963       0.15053581       9.75266075       6.54771852      25.26889801
21
Properties=species:S:1:pos:R:3:forces:R:3 energy=-405679.38 pbc="F F F"
C        1.77250206      -1.52453995      -0.72734666     -32.07074738      15.00640774      19.61333466
C        0.89779907       1.00738311      -1.46935165     -86.84942627      13.53283691      41.20343781
C        2.64877915      -0.68927187      -1.43156064      -6.14209318     -38.03541183     -10.32365799
C        2.13604403       0.55099308      -1.74134171      34.69193649      19.15250587     -55.72905350
C       -2.23103786       1.88345814       1.64293432      -7.08947802      37.57573318      92.25971985
C        0.48798105      -1.06941092      -0.18425266      26.35143661      79.69332123     -43.49899292
C        0.04713605       0.27145210      -0.57123965      55.38395691     -12.72115612      -0.18860635
O       -1.05317998      -1.29790092       1.60735536     -50.19921875      57.01819229      81.23116302
O       -0.49847794       2.93191409       0.30481634     -33.54124832      -6.09574413       6.01507282
O       -0.42102295      -3.05715990       0.51839334      -2.55744624     -60.77222824      37.55595779
C       -0.40338996      -1.74944890       0.75084937      41.20472336     -50.60251617     -54.85163879
C       -1.29106498       2.04112911       0.53966033      87.88655853      -6.21187925     -31.10094643
O       -1.11567295       0.78487813      -0.06995366     -32.11576462     -15.08338737      -7.07727957
H       -0.78199893      -3.42537999       1.39682329       8.80453491      10.62485027     -45.09314346
H        2.06487608      -2.53149390      -0.57556665       3.71253324     -32.48416138      10.60019302
H        0.40959606       1.90492511      -1.89099860      19.16825104      -2.24031615       2.11096931
H        3.53452516      -1.04929793      -2.05589962     -20.96615601       5.16834879      33.35994720
H        2.67591405       1.06846905      -2.51727772      12.74896145      19.10319901      -5.59039688
H       -3.30332589       1.82621706       1.48316836      -8.25075436      -4.46579790     -15.49046135
H       -1.90789700       1.02021408       2.25043035      -4.13274240     -10.01846218     -13.45520210
H       -2.07553697       2.72245002       2.44712234      -6.03781939     -18.14433670     -41.55041504
